


 38 41  0  0  0  0  0  0  0  0999 V2000
   -6.4952   -0.8621   -2.9374 N   0  0  0  0  0  0  0  0  0  0  0  0
   -5.2697   -1.5554   -3.1725 C   0  0  0  0  0  0  0  0  0  0  0  0
   -5.2976   -2.8040   -3.7240 N   0  0  0  0  0  0  0  0  0  0  0  0
   -4.1264   -3.4475   -3.9475 C   0  0  0  0  0  0  0  0  0  0  0  0
   -2.9212   -2.8876   -3.6326 C   0  0  0  0  0  0  0  0  0  0  0  0
   -1.9491   -3.8215   -3.9707 C   0  0  0  0  0  0  0  0  0  0  0  0
   -2.6476   -4.9263   -4.4598 C   0  0  0  0  0  0  0  0  0  0  0  0
   -3.9796   -4.6823   -4.4626 N   0  0  0  0  0  0  0  0  0  0  0  0
   -2.8856   -1.6190   -3.0538 C   0  0  0  0  0  0  0  0  0  0  0  0
   -1.8001   -1.0744   -2.7243 O   0  0  0  0  0  0  0  0  0  0  0  0
   -4.0716   -0.9728   -2.8410 N   0  0  0  0  0  0  0  0  0  0  0  0
   -6.4962    0.0895   -2.5054 H   0  0  0  0  0  0  0  0  0  0  0  0
   -7.4062   -1.2984   -3.1983 H   0  0  0  0  0  0  0  0  0  0  0  0
   -4.0635   -0.0192   -2.4133 H   0  0  0  0  0  0  0  0  0  0  0  0
   -5.0221   -5.6456   -4.8260 C   0  0  0  0  0  0  0  0  0  0  0  0
   -4.5061   -6.9572   -4.8406 O   0  0  0  0  0  0  0  0  0  0  0  0
   -5.2096   -7.6725   -5.8372 C   0  0  0  0  0  0  0  0  0  0  0  0
   -6.0839   -6.7026   -6.6473 C   0  0  0  0  0  0  0  0  0  0  0  0
   -7.4337   -6.8795   -6.2927 O   0  0  0  0  0  0  0  0  0  0  0  0
   -5.5782   -5.3469   -6.2047 C   0  0  0  0  0  0  0  0  0  0  0  0
   -6.5980   -4.3839   -6.1373 O   0  0  0  0  0  0  0  0  0  0  0  0
   -7.9771   -6.5041   -7.0333 H   0  0  0  0  0  0  0  0  0  0  0  0
   -6.7953   -4.1184   -7.0736 H   0  0  0  0  0  0  0  0  0  0  0  0
   -4.2137   -8.4349   -6.7202 C   0  0  0  0  0  0  0  0  0  0  0  0
   -2.9700   -7.7899   -6.7282 O   0  0  0  0  0  0  0  0  0  0  0  0
   -2.3982   -8.3020   -7.3579 H   0  0  0  0  0  0  0  0  0  0  0  0
   -0.4535   -3.7297   -3.7888 C   0  0  0  0  0  0  0  0  0  0  0  0
    0.2907   -4.4090   -4.8715 N   0  0  0  0  0  0  0  0  0  0  0  0
    1.1887   -4.8045   -4.5090 H   0  0  0  0  0  0  0  0  0  0  0  0
   -0.4470   -5.4591   -5.6064 C   0  0  0  0  0  0  0  0  0  0  0  0
   -0.3805   -5.3044   -7.0908 C   0  0  0  0  0  0  0  0  0  0  0  0
    0.1831   -6.3464   -7.6797 C   0  0  0  0  0  0  0  0  0  0  0  0
    0.6366   -7.3815   -6.7103 C   0  0  0  0  0  0  0  0  0  0  0  0
    0.1017   -8.6291   -7.0645 O   0  0  0  0  0  0  0  0  0  0  0  0
    0.1178   -6.8770   -5.3413 C   0  0  0  0  0  0  0  0  0  0  0  0
   -0.8689   -7.7253   -4.8000 O   0  0  0  0  0  0  0  0  0  0  0  0
    0.5897   -9.3044   -6.5225 H   0  0  0  0  0  0  0  0  0  0  0  0
   -1.6424   -7.7342   -5.4246 H   0  0  0  0  0  0  0  0  0  0  0  0
  1  2  1  0  0  0
  1 12  1  0  0  0
  1 13  1  0  0  0
  2  3  2  0  0  0
  2 11  1  0  0  0
  3  4  1  0  0  0
  4  5  2  0  0  0
  4  8  1  0  0  0
  5  6  1  0  0  0
  5  9  1  0  0  0
  6 27  1  0  0  0
  6  7  2  0  0  0
  7  8  1  0  0  0
  8 15  1  0  0  0
  9 10  2  0  0  0
  9 11  1  0  0  0
 11 14  1  0  0  0
 15 16  1  0  0  0
 15 20  1  0  0  0
 16 17  1  0  0  0
 17 24  1  0  0  0
 17 18  1  0  0  0
 18 19  1  0  0  0
 18 20  1  0  0  0
 19 22  1  0  0  0
 20 21  1  0  0  0
 21 23  1  0  0  0
 24 25  1  0  0  0
 25 26  1  0  0  0
 27 28  1  0  0  0
 28 30  1  0  0  0
 28 29  1  0  0  0
 30 31  1  0  0  0
 30 35  1  0  0  0
 31 32  2  0  0  0
 32 33  1  0  0  0
 33 34  1  0  0  0
 33 35  1  0  0  0
 34 37  1  0  0  0
 35 36  1  0  0  0
 36 38  1  0  0  0
M  END
> <COMPND>
    UNNAMED

> <AUTHOR>
    GENERATED BY OPEN BABEL 3.1.0

> <MASTER>
        0    0    0    0    0    0    0    0   38    0   38    0

> <minimizedAffinity>
-12.18348

> <CNNscore>
0.4987953305

> <CNNaffinity>
6.5353193283

> <CNN_VS>
3.2597868443

> <CNNaffinity_variance>
0.2576375604

$$$$



 38 41  0  0  0  0  0  0  0  0999 V2000
   -5.3117   -2.0666   -3.3365 N   0  0  0  0  0  0  0  0  0  0  0  0
   -4.1732   -2.8231   -3.7477 C   0  0  0  0  0  0  0  0  0  0  0  0
   -4.3523   -4.0252   -4.3694 N   0  0  0  0  0  0  0  0  0  0  0  0
   -3.2626   -4.7294   -4.7600 C   0  0  0  0  0  0  0  0  0  0  0  0
   -1.9925   -4.2758   -4.5453 C   0  0  0  0  0  0  0  0  0  0  0  0
   -1.1340   -5.2474   -5.0457 C   0  0  0  0  0  0  0  0  0  0  0  0
   -1.9608   -6.2654   -5.5229 C   0  0  0  0  0  0  0  0  0  0  0  0
   -3.2637   -5.9322   -5.3640 N   0  0  0  0  0  0  0  0  0  0  0  0
   -1.8013   -3.0562   -3.8960 C   0  0  0  0  0  0  0  0  0  0  0  0
   -0.6494   -2.6107   -3.6546 O   0  0  0  0  0  0  0  0  0  0  0  0
   -2.9066   -2.3476   -3.5143 N   0  0  0  0  0  0  0  0  0  0  0  0
   -5.1961   -1.1496   -2.8487 H   0  0  0  0  0  0  0  0  0  0  0  0
   -6.2752   -2.4208   -3.5223 H   0  0  0  0  0  0  0  0  0  0  0  0
   -2.7822   -1.4289   -3.0315 H   0  0  0  0  0  0  0  0  0  0  0  0
   -4.4078   -6.7949   -5.6699 C   0  0  0  0  0  0  0  0  0  0  0  0
   -3.9796   -7.9996   -6.2633 O   0  0  0  0  0  0  0  0  0  0  0  0
   -4.9925   -8.4061   -7.1625 C   0  0  0  0  0  0  0  0  0  0  0  0
   -6.0359   -7.2870   -7.3036 C   0  0  0  0  0  0  0  0  0  0  0  0
   -7.2102   -7.6513   -6.6200 O   0  0  0  0  0  0  0  0  0  0  0  0
   -5.3586   -6.1116   -6.6334 C   0  0  0  0  0  0  0  0  0  0  0  0
   -6.2624   -5.2852   -5.9462 O   0  0  0  0  0  0  0  0  0  0  0  0
   -7.9436   -7.0960   -6.9922 H   0  0  0  0  0  0  0  0  0  0  0  0
   -6.7344   -4.7505   -6.6371 H   0  0  0  0  0  0  0  0  0  0  0  0
   -4.3610   -8.7865   -8.5077 C   0  0  0  0  0  0  0  0  0  0  0  0
   -5.3208   -9.3483   -9.3598 O   0  0  0  0  0  0  0  0  0  0  0  0
   -4.8345   -9.6194  -10.1818 H   0  0  0  0  0  0  0  0  0  0  0  0
    0.3751   -5.2701   -5.0240 C   0  0  0  0  0  0  0  0  0  0  0  0
    0.9334   -6.4433   -5.7306 N   0  0  0  0  0  0  0  0  0  0  0  0
    1.7028   -6.1522   -6.3766 H   0  0  0  0  0  0  0  0  0  0  0  0
    1.4049   -7.5529   -4.8742 C   0  0  0  0  0  0  0  0  0  0  0  0
    0.7835   -8.8692   -5.2106 C   0  0  0  0  0  0  0  0  0  0  0  0
    1.6812   -9.7701   -5.5747 C   0  0  0  0  0  0  0  0  0  0  0  0
    3.0682   -9.2289   -5.5904 C   0  0  0  0  0  0  0  0  0  0  0  0
    3.9050  -10.0474   -4.8172 O   0  0  0  0  0  0  0  0  0  0  0  0
    2.9281   -7.8005   -5.0090 C   0  0  0  0  0  0  0  0  0  0  0  0
    3.5782   -7.6652   -3.7660 O   0  0  0  0  0  0  0  0  0  0  0  0
    4.8359   -9.7678   -5.0249 H   0  0  0  0  0  0  0  0  0  0  0  0
    3.1463   -8.2896   -3.1241 H   0  0  0  0  0  0  0  0  0  0  0  0
  1  2  1  0  0  0
  1 12  1  0  0  0
  1 13  1  0  0  0
  2  3  2  0  0  0
  2 11  1  0  0  0
  3  4  1  0  0  0
  4  5  2  0  0  0
  4  8  1  0  0  0
  5  6  1  0  0  0
  5  9  1  0  0  0
  6 27  1  0  0  0
  6  7  2  0  0  0
  7  8  1  0  0  0
  8 15  1  0  0  0
  9 10  2  0  0  0
  9 11  1  0  0  0
 11 14  1  0  0  0
 15 16  1  0  0  0
 15 20  1  0  0  0
 16 17  1  0  0  0
 17 24  1  0  0  0
 17 18  1  0  0  0
 18 19  1  0  0  0
 18 20  1  0  0  0
 19 22  1  0  0  0
 20 21  1  0  0  0
 21 23  1  0  0  0
 24 25  1  0  0  0
 25 26  1  0  0  0
 27 28  1  0  0  0
 28 30  1  0  0  0
 28 29  1  0  0  0
 30 31  1  0  0  0
 30 35  1  0  0  0
 31 32  2  0  0  0
 32 33  1  0  0  0
 33 34  1  0  0  0
 33 35  1  0  0  0
 34 37  1  0  0  0
 35 36  1  0  0  0
 36 38  1  0  0  0
M  END
> <COMPND>
    UNNAMED

> <AUTHOR>
    GENERATED BY OPEN BABEL 3.1.0

> <MASTER>
        0    0    0    0    0    0    0    0   38    0   38    0

> <minimizedAffinity>
-10.97633

> <CNNscore>
0.3884319365

> <CNNaffinity>
6.3533945084

> <CNN_VS>
2.4678614140

> <CNNaffinity_variance>
0.3397548199

$$$$



 38 41  0  0  0  0  0  0  0  0999 V2000
    0.9357   -2.4231   -6.5624 N   0  0  0  0  0  0  0  0  0  0  0  0
    0.1220   -3.5745   -6.3392 C   0  0  0  0  0  0  0  0  0  0  0  0
   -0.3879   -3.8075   -5.0944 N   0  0  0  0  0  0  0  0  0  0  0  0
   -1.1640   -4.9008   -4.8986 C   0  0  0  0  0  0  0  0  0  0  0  0
   -1.4459   -5.7782   -5.9064 C   0  0  0  0  0  0  0  0  0  0  0  0
   -2.2365   -6.7781   -5.3527 C   0  0  0  0  0  0  0  0  0  0  0  0
   -2.3666   -6.4462   -4.0035 C   0  0  0  0  0  0  0  0  0  0  0  0
   -1.7250   -5.2839   -3.7367 N   0  0  0  0  0  0  0  0  0  0  0  0
   -0.9150   -5.5556   -7.1770 C   0  0  0  0  0  0  0  0  0  0  0  0
   -1.1274   -6.3503   -8.1293 O   0  0  0  0  0  0  0  0  0  0  0  0
   -0.1412   -4.4446   -7.3679 N   0  0  0  0  0  0  0  0  0  0  0  0
    1.3452   -2.2329   -7.5050 H   0  0  0  0  0  0  0  0  0  0  0  0
    1.1283   -1.7548   -5.7849 H   0  0  0  0  0  0  0  0  0  0  0  0
    0.2602   -4.2590   -8.3150 H   0  0  0  0  0  0  0  0  0  0  0  0
   -1.5760   -4.6769   -2.4115 C   0  0  0  0  0  0  0  0  0  0  0  0
   -1.1803   -5.6413   -1.4628 O   0  0  0  0  0  0  0  0  0  0  0  0
   -1.7496   -5.2672   -0.2235 C   0  0  0  0  0  0  0  0  0  0  0  0
   -2.7360   -4.1087   -0.4383 C   0  0  0  0  0  0  0  0  0  0  0  0
   -2.1701   -2.9147    0.0444 O   0  0  0  0  0  0  0  0  0  0  0  0
   -2.8849   -4.0708   -1.9436 C   0  0  0  0  0  0  0  0  0  0  0  0
   -3.0402   -2.7664   -2.4399 O   0  0  0  0  0  0  0  0  0  0  0  0
   -2.9195   -2.2823    0.1965 H   0  0  0  0  0  0  0  0  0  0  0  0
   -3.9751   -2.4992   -2.2382 H   0  0  0  0  0  0  0  0  0  0  0  0
   -2.4165   -6.4876    0.4234 C   0  0  0  0  0  0  0  0  0  0  0  0
   -3.6065   -6.1161    1.0627 O   0  0  0  0  0  0  0  0  0  0  0  0
   -3.9509   -6.9370    1.5024 H   0  0  0  0  0  0  0  0  0  0  0  0
   -2.7886   -8.0161   -6.0168 C   0  0  0  0  0  0  0  0  0  0  0  0
   -3.5237   -7.7095   -7.2630 N   0  0  0  0  0  0  0  0  0  0  0  0
   -2.9087   -7.8503   -8.0973 H   0  0  0  0  0  0  0  0  0  0  0  0
   -4.7955   -8.4374   -7.4622 C   0  0  0  0  0  0  0  0  0  0  0  0
   -6.0007   -7.6478   -7.0676 C   0  0  0  0  0  0  0  0  0  0  0  0
   -6.8274   -7.4524   -8.0817 C   0  0  0  0  0  0  0  0  0  0  0  0
   -6.3252   -8.0361   -9.3561 C   0  0  0  0  0  0  0  0  0  0  0  0
   -7.3032   -8.8751   -9.9109 O   0  0  0  0  0  0  0  0  0  0  0  0
   -5.0437   -8.8029   -8.9469 C   0  0  0  0  0  0  0  0  0  0  0  0
   -5.1805  -10.1958   -9.1126 O   0  0  0  0  0  0  0  0  0  0  0  0
   -7.0076   -9.0699  -10.8396 H   0  0  0  0  0  0  0  0  0  0  0  0
   -5.9136  -10.5053   -8.5166 H   0  0  0  0  0  0  0  0  0  0  0  0
  1  2  1  0  0  0
  1 12  1  0  0  0
  1 13  1  0  0  0
  2  3  2  0  0  0
  2 11  1  0  0  0
  3  4  1  0  0  0
  4  5  2  0  0  0
  4  8  1  0  0  0
  5  6  1  0  0  0
  5  9  1  0  0  0
  6 27  1  0  0  0
  6  7  2  0  0  0
  7  8  1  0  0  0
  8 15  1  0  0  0
  9 10  2  0  0  0
  9 11  1  0  0  0
 11 14  1  0  0  0
 15 16  1  0  0  0
 15 20  1  0  0  0
 16 17  1  0  0  0
 17 24  1  0  0  0
 17 18  1  0  0  0
 18 19  1  0  0  0
 18 20  1  0  0  0
 19 22  1  0  0  0
 20 21  1  0  0  0
 21 23  1  0  0  0
 24 25  1  0  0  0
 25 26  1  0  0  0
 27 28  1  0  0  0
 28 30  1  0  0  0
 28 29  1  0  0  0
 30 31  1  0  0  0
 30 35  1  0  0  0
 31 32  2  0  0  0
 32 33  1  0  0  0
 33 34  1  0  0  0
 33 35  1  0  0  0
 34 37  1  0  0  0
 35 36  1  0  0  0
 36 38  1  0  0  0
M  END
> <COMPND>
    UNNAMED

> <AUTHOR>
    GENERATED BY OPEN BABEL 3.1.0

> <MASTER>
        0    0    0    0    0    0    0    0   38    0   38    0

> <minimizedAffinity>
-9.36439

> <CNNscore>
0.3786348104

> <CNNaffinity>
5.9137940407

> <CNN_VS>
2.2391681671

> <CNNaffinity_variance>
0.2513115704

$$$$



 38 41  0  0  0  0  0  0  0  0999 V2000
   -2.9187   -2.1706    2.0010 N   0  0  0  0  0  0  0  0  0  0  0  0
   -2.8170   -2.5034    0.6166 C   0  0  0  0  0  0  0  0  0  0  0  0
   -1.9482   -3.4792    0.2207 N   0  0  0  0  0  0  0  0  0  0  0  0
   -1.8670   -3.7891   -1.0958 C   0  0  0  0  0  0  0  0  0  0  0  0
   -2.6229   -3.1513   -2.0375 C   0  0  0  0  0  0  0  0  0  0  0  0
   -2.2709   -3.6977   -3.2659 C   0  0  0  0  0  0  0  0  0  0  0  0
   -1.2808   -4.6402   -2.9846 C   0  0  0  0  0  0  0  0  0  0  0  0
   -1.0533   -4.7061   -1.6513 N   0  0  0  0  0  0  0  0  0  0  0  0
   -3.5008   -2.1418   -1.6425 C   0  0  0  0  0  0  0  0  0  0  0  0
   -4.1985   -1.5101   -2.4778 O   0  0  0  0  0  0  0  0  0  0  0  0
   -3.5836   -1.8426   -0.3110 N   0  0  0  0  0  0  0  0  0  0  0  0
   -3.5690   -1.4187    2.3234 H   0  0  0  0  0  0  0  0  0  0  0  0
   -2.3450   -2.6786    2.7089 H   0  0  0  0  0  0  0  0  0  0  0  0
   -4.2404   -1.0928    0.0036 H   0  0  0  0  0  0  0  0  0  0  0  0
   -0.0228   -5.5199   -1.0014 C   0  0  0  0  0  0  0  0  0  0  0  0
    1.1898   -5.4539   -1.7169 O   0  0  0  0  0  0  0  0  0  0  0  0
    1.8370   -6.7013   -1.5593 C   0  0  0  0  0  0  0  0  0  0  0  0
    0.8846   -7.6930   -0.8732 C   0  0  0  0  0  0  0  0  0  0  0  0
    1.2936   -7.8920    0.4580 O   0  0  0  0  0  0  0  0  0  0  0  0
   -0.4457   -6.9745   -0.9320 C   0  0  0  0  0  0  0  0  0  0  0  0
   -1.2408   -7.2130    0.2006 O   0  0  0  0  0  0  0  0  0  0  0  0
    0.8890   -8.7468    0.7583 H   0  0  0  0  0  0  0  0  0  0  0  0
   -1.6138   -8.1271    0.0938 H   0  0  0  0  0  0  0  0  0  0  0  0
    2.3172   -7.2057   -2.9260 C   0  0  0  0  0  0  0  0  0  0  0  0
    3.4445   -8.0246   -2.7793 O   0  0  0  0  0  0  0  0  0  0  0  0
    3.7311   -8.2661   -3.6986 H   0  0  0  0  0  0  0  0  0  0  0  0
   -2.7713   -3.3230   -4.6397 C   0  0  0  0  0  0  0  0  0  0  0  0
   -1.8506   -3.7539   -5.7141 N   0  0  0  0  0  0  0  0  0  0  0  0
   -0.9714   -3.1877   -5.6945 H   0  0  0  0  0  0  0  0  0  0  0  0
   -1.5080   -5.1923   -5.7371 C   0  0  0  0  0  0  0  0  0  0  0  0
   -2.5965   -6.0542   -6.2884 C   0  0  0  0  0  0  0  0  0  0  0  0
   -2.2139   -6.7182   -7.3668 C   0  0  0  0  0  0  0  0  0  0  0  0
   -0.8151   -6.4063   -7.7704 C   0  0  0  0  0  0  0  0  0  0  0  0
   -0.0821   -7.5958   -7.8973 O   0  0  0  0  0  0  0  0  0  0  0  0
   -0.2835   -5.4962   -6.6360 C   0  0  0  0  0  0  0  0  0  0  0  0
    0.7490   -6.1108   -5.8995 O   0  0  0  0  0  0  0  0  0  0  0  0
    0.7641   -7.3526   -8.3583 H   0  0  0  0  0  0  0  0  0  0  0  0
    0.3773   -6.9284   -5.4732 H   0  0  0  0  0  0  0  0  0  0  0  0
  1  2  1  0  0  0
  1 12  1  0  0  0
  1 13  1  0  0  0
  2  3  2  0  0  0
  2 11  1  0  0  0
  3  4  1  0  0  0
  4  5  2  0  0  0
  4  8  1  0  0  0
  5  6  1  0  0  0
  5  9  1  0  0  0
  6 27  1  0  0  0
  6  7  2  0  0  0
  7  8  1  0  0  0
  8 15  1  0  0  0
  9 10  2  0  0  0
  9 11  1  0  0  0
 11 14  1  0  0  0
 15 16  1  0  0  0
 15 20  1  0  0  0
 16 17  1  0  0  0
 17 24  1  0  0  0
 17 18  1  0  0  0
 18 19  1  0  0  0
 18 20  1  0  0  0
 19 22  1  0  0  0
 20 21  1  0  0  0
 21 23  1  0  0  0
 24 25  1  0  0  0
 25 26  1  0  0  0
 27 28  1  0  0  0
 28 30  1  0  0  0
 28 29  1  0  0  0
 30 31  1  0  0  0
 30 35  1  0  0  0
 31 32  2  0  0  0
 32 33  1  0  0  0
 33 34  1  0  0  0
 33 35  1  0  0  0
 34 37  1  0  0  0
 35 36  1  0  0  0
 36 38  1  0  0  0
M  END
> <COMPND>
    UNNAMED

> <AUTHOR>
    GENERATED BY OPEN BABEL 3.1.0

> <MASTER>
        0    0    0    0    0    0    0    0   38    0   38    0

> <minimizedAffinity>
-9.95318

> <CNNscore>
0.3785117567

> <CNNaffinity>
6.3865156174

> <CNN_VS>
2.4173712730

> <CNNaffinity_variance>
1.2213534117

$$$$



 38 41  0  0  0  0  0  0  0  0999 V2000
    0.8618   -2.8350   -6.4591 N   0  0  0  0  0  0  0  0  0  0  0  0
    0.0220   -3.9846   -6.5633 C   0  0  0  0  0  0  0  0  0  0  0  0
   -0.8354   -4.2866   -5.5447 N   0  0  0  0  0  0  0  0  0  0  0  0
   -1.6312   -5.3771   -5.6602 C   0  0  0  0  0  0  0  0  0  0  0  0
   -1.5970   -6.1850   -6.7607 C   0  0  0  0  0  0  0  0  0  0  0  0
   -2.5137   -7.2045   -6.5335 C   0  0  0  0  0  0  0  0  0  0  0  0
   -3.0415   -6.9555   -5.2658 C   0  0  0  0  0  0  0  0  0  0  0  0
   -2.5122   -5.8229   -4.7454 N   0  0  0  0  0  0  0  0  0  0  0  0
   -0.7118   -5.8921   -7.7982 C   0  0  0  0  0  0  0  0  0  0  0  0
   -0.6281   -6.6220   -8.8198 O   0  0  0  0  0  0  0  0  0  0  0  0
    0.0803   -4.7842   -7.6777 N   0  0  0  0  0  0  0  0  0  0  0  0
    1.5333   -2.5930   -7.2225 H   0  0  0  0  0  0  0  0  0  0  0  0
    0.8117   -2.2199   -5.6180 H   0  0  0  0  0  0  0  0  0  0  0  0
    0.7455   -4.5463   -8.4481 H   0  0  0  0  0  0  0  0  0  0  0  0
   -2.7672   -5.3025   -3.3997 C   0  0  0  0  0  0  0  0  0  0  0  0
   -2.3377   -3.9643   -3.2927 O   0  0  0  0  0  0  0  0  0  0  0  0
   -1.9058   -3.7688   -1.9603 C   0  0  0  0  0  0  0  0  0  0  0  0
   -1.8647   -5.1194   -1.2286 C   0  0  0  0  0  0  0  0  0  0  0  0
   -2.9408   -5.1972   -0.3259 O   0  0  0  0  0  0  0  0  0  0  0  0
   -2.0268   -6.1158   -2.3557 C   0  0  0  0  0  0  0  0  0  0  0  0
   -2.7712   -7.2449   -1.9777 O   0  0  0  0  0  0  0  0  0  0  0  0
   -2.7076   -5.8947    0.3402 H   0  0  0  0  0  0  0  0  0  0  0  0
   -2.1656   -7.8092   -1.4292 H   0  0  0  0  0  0  0  0  0  0  0  0
   -0.5428   -3.0653   -1.9614 C   0  0  0  0  0  0  0  0  0  0  0  0
    0.0904   -3.2224   -3.2012 O   0  0  0  0  0  0  0  0  0  0  0  0
    0.9818   -2.7945   -3.1114 H   0  0  0  0  0  0  0  0  0  0  0  0
   -2.8389   -8.3892   -7.4104 C   0  0  0  0  0  0  0  0  0  0  0  0
   -4.2642   -8.4279   -7.8033 N   0  0  0  0  0  0  0  0  0  0  0  0
   -4.7477   -7.5440   -7.5222 H   0  0  0  0  0  0  0  0  0  0  0  0
   -4.5368   -8.7042   -9.2303 C   0  0  0  0  0  0  0  0  0  0  0  0
   -3.3812   -8.3989  -10.1265 C   0  0  0  0  0  0  0  0  0  0  0  0
   -2.9557   -9.4678  -10.7794 C   0  0  0  0  0  0  0  0  0  0  0  0
   -3.7125  -10.7000  -10.4243 C   0  0  0  0  0  0  0  0  0  0  0  0
   -4.1982  -11.3103  -11.5904 O   0  0  0  0  0  0  0  0  0  0  0  0
   -4.8464  -10.1985   -9.4967 C   0  0  0  0  0  0  0  0  0  0  0  0
   -6.1203  -10.3590  -10.0779 O   0  0  0  0  0  0  0  0  0  0  0  0
   -4.5090  -12.2152  -11.3213 H   0  0  0  0  0  0  0  0  0  0  0  0
   -6.1512   -9.8102  -10.9063 H   0  0  0  0  0  0  0  0  0  0  0  0
  1  2  1  0  0  0
  1 12  1  0  0  0
  1 13  1  0  0  0
  2  3  2  0  0  0
  2 11  1  0  0  0
  3  4  1  0  0  0
  4  5  2  0  0  0
  4  8  1  0  0  0
  5  6  1  0  0  0
  5  9  1  0  0  0
  6 27  1  0  0  0
  6  7  2  0  0  0
  7  8  1  0  0  0
  8 15  1  0  0  0
  9 10  2  0  0  0
  9 11  1  0  0  0
 11 14  1  0  0  0
 15 16  1  0  0  0
 15 20  1  0  0  0
 16 17  1  0  0  0
 17 24  1  0  0  0
 17 18  1  0  0  0
 18 19  1  0  0  0
 18 20  1  0  0  0
 19 22  1  0  0  0
 20 21  1  0  0  0
 21 23  1  0  0  0
 24 25  1  0  0  0
 25 26  1  0  0  0
 27 28  1  0  0  0
 28 30  1  0  0  0
 28 29  1  0  0  0
 30 31  1  0  0  0
 30 35  1  0  0  0
 31 32  2  0  0  0
 32 33  1  0  0  0
 33 34  1  0  0  0
 33 35  1  0  0  0
 34 37  1  0  0  0
 35 36  1  0  0  0
 36 38  1  0  0  0
M  END
> <COMPND>
    UNNAMED

> <AUTHOR>
    GENERATED BY OPEN BABEL 3.1.0

> <MASTER>
        0    0    0    0    0    0    0    0   38    0   38    0

> <minimizedAffinity>
-9.13243

> <CNNscore>
0.3762890100

> <CNNaffinity>
5.7980494499

> <CNN_VS>
2.1817421913

> <CNNaffinity_variance>
0.5988187790

$$$$



 38 41  0  0  0  0  0  0  0  0999 V2000
   -2.7663   -6.4715    0.5926 N   0  0  0  0  0  0  0  0  0  0  0  0
   -2.2889   -5.5590   -0.3959 C   0  0  0  0  0  0  0  0  0  0  0  0
   -3.1541   -4.6694   -0.9649 N   0  0  0  0  0  0  0  0  0  0  0  0
   -2.6856   -3.8048   -1.8970 C   0  0  0  0  0  0  0  0  0  0  0  0
   -1.3771   -3.8008   -2.2878 C   0  0  0  0  0  0  0  0  0  0  0  0
   -1.2562   -2.8156   -3.2604 C   0  0  0  0  0  0  0  0  0  0  0  0
   -2.5385   -2.2877   -3.4177 C   0  0  0  0  0  0  0  0  0  0  0  0
   -3.4049   -2.8835   -2.5644 N   0  0  0  0  0  0  0  0  0  0  0  0
   -0.4907   -4.7179   -1.7229 C   0  0  0  0  0  0  0  0  0  0  0  0
    0.7178   -4.7674   -2.0704 O   0  0  0  0  0  0  0  0  0  0  0  0
   -0.9698   -5.5798   -0.7759 N   0  0  0  0  0  0  0  0  0  0  0  0
   -2.1228   -7.1682    1.0318 H   0  0  0  0  0  0  0  0  0  0  0  0
   -3.7658   -6.4504    0.8907 H   0  0  0  0  0  0  0  0  0  0  0  0
   -0.3185   -6.2699   -0.3378 H   0  0  0  0  0  0  0  0  0  0  0  0
   -4.8495   -2.6448   -2.5114 C   0  0  0  0  0  0  0  0  0  0  0  0
   -5.2313   -1.6816   -3.4670 O   0  0  0  0  0  0  0  0  0  0  0  0
   -6.3295   -0.9711   -2.9293 C   0  0  0  0  0  0  0  0  0  0  0  0
   -6.5288   -1.3671   -1.4580 C   0  0  0  0  0  0  0  0  0  0  0  0
   -7.6635   -2.1906   -1.3432 O   0  0  0  0  0  0  0  0  0  0  0  0
   -5.2643   -2.1364   -1.1443 C   0  0  0  0  0  0  0  0  0  0  0  0
   -5.4847   -3.2027   -0.2575 O   0  0  0  0  0  0  0  0  0  0  0  0
   -7.9506   -2.1539   -0.3941 H   0  0  0  0  0  0  0  0  0  0  0  0
   -5.5859   -2.8006    0.6448 H   0  0  0  0  0  0  0  0  0  0  0  0
   -6.0985    0.5356   -3.1006 C   0  0  0  0  0  0  0  0  0  0  0  0
   -7.1025    1.2639   -2.4490 O   0  0  0  0  0  0  0  0  0  0  0  0
   -6.9224    2.2198   -2.6477 H   0  0  0  0  0  0  0  0  0  0  0  0
   -0.0347   -2.4250   -4.0565 C   0  0  0  0  0  0  0  0  0  0  0  0
    0.5292   -3.5591   -4.8203 N   0  0  0  0  0  0  0  0  0  0  0  0
    1.3102   -4.0086   -4.2892 H   0  0  0  0  0  0  0  0  0  0  0  0
   -0.4342   -4.5964   -5.2481 C   0  0  0  0  0  0  0  0  0  0  0  0
   -0.7569   -4.5433   -6.7058 C   0  0  0  0  0  0  0  0  0  0  0  0
   -0.4286   -5.6603   -7.3340 C   0  0  0  0  0  0  0  0  0  0  0  0
    0.2089   -6.6616   -6.4353 C   0  0  0  0  0  0  0  0  0  0  0  0
   -0.4688   -7.8861   -6.5338 O   0  0  0  0  0  0  0  0  0  0  0  0
    0.1018   -6.0324   -5.0245 C   0  0  0  0  0  0  0  0  0  0  0  0
   -0.7503   -6.7679   -4.1764 O   0  0  0  0  0  0  0  0  0  0  0  0
    0.1079   -8.5595   -6.0846 H   0  0  0  0  0  0  0  0  0  0  0  0
   -1.6614   -6.7592   -4.5742 H   0  0  0  0  0  0  0  0  0  0  0  0
  1  2  1  0  0  0
  1 12  1  0  0  0
  1 13  1  0  0  0
  2  3  2  0  0  0
  2 11  1  0  0  0
  3  4  1  0  0  0
  4  5  2  0  0  0
  4  8  1  0  0  0
  5  6  1  0  0  0
  5  9  1  0  0  0
  6 27  1  0  0  0
  6  7  2  0  0  0
  7  8  1  0  0  0
  8 15  1  0  0  0
  9 10  2  0  0  0
  9 11  1  0  0  0
 11 14  1  0  0  0
 15 16  1  0  0  0
 15 20  1  0  0  0
 16 17  1  0  0  0
 17 24  1  0  0  0
 17 18  1  0  0  0
 18 19  1  0  0  0
 18 20  1  0  0  0
 19 22  1  0  0  0
 20 21  1  0  0  0
 21 23  1  0  0  0
 24 25  1  0  0  0
 25 26  1  0  0  0
 27 28  1  0  0  0
 28 30  1  0  0  0
 28 29  1  0  0  0
 30 31  1  0  0  0
 30 35  1  0  0  0
 31 32  2  0  0  0
 32 33  1  0  0  0
 33 34  1  0  0  0
 33 35  1  0  0  0
 34 37  1  0  0  0
 35 36  1  0  0  0
 36 38  1  0  0  0
M  END
> <COMPND>
    UNNAMED

> <AUTHOR>
    GENERATED BY OPEN BABEL 3.1.0

> <MASTER>
        0    0    0    0    0    0    0    0   38    0   38    0

> <minimizedAffinity>
-11.51025

> <CNNscore>
0.3692928553

> <CNNaffinity>
6.3329067230

> <CNN_VS>
2.3386971951

> <CNNaffinity_variance>
0.7646014690

$$$$



 38 41  0  0  0  0  0  0  0  0999 V2000
   -5.2267   -2.0474   -3.2966 N   0  0  0  0  0  0  0  0  0  0  0  0
   -4.0996   -2.8161   -3.7164 C   0  0  0  0  0  0  0  0  0  0  0  0
   -4.2962   -4.0195   -4.3305 N   0  0  0  0  0  0  0  0  0  0  0  0
   -3.2172   -4.7352   -4.7296 C   0  0  0  0  0  0  0  0  0  0  0  0
   -1.9408   -4.2922   -4.5307 C   0  0  0  0  0  0  0  0  0  0  0  0
   -1.0966   -5.2738   -5.0357 C   0  0  0  0  0  0  0  0  0  0  0  0
   -1.9377   -6.2865   -5.4992 C   0  0  0  0  0  0  0  0  0  0  0  0
   -3.2358   -5.9408   -5.3279 N   0  0  0  0  0  0  0  0  0  0  0  0
   -1.7316   -3.0714   -3.8892 C   0  0  0  0  0  0  0  0  0  0  0  0
   -0.5732   -2.6353   -3.6623 O   0  0  0  0  0  0  0  0  0  0  0  0
   -2.8263   -2.3511   -3.4989 N   0  0  0  0  0  0  0  0  0  0  0  0
   -5.0975   -1.1293   -2.8143 H   0  0  0  0  0  0  0  0  0  0  0  0
   -6.1953   -2.3938   -3.4703 H   0  0  0  0  0  0  0  0  0  0  0  0
   -2.6884   -1.4314   -3.0219 H   0  0  0  0  0  0  0  0  0  0  0  0
   -4.3908   -6.7944   -5.6173 C   0  0  0  0  0  0  0  0  0  0  0  0
   -3.9802   -8.0041   -6.2130 O   0  0  0  0  0  0  0  0  0  0  0  0
   -5.0076   -8.4042   -7.0986 C   0  0  0  0  0  0  0  0  0  0  0  0
   -6.0433   -7.2765   -7.2294 C   0  0  0  0  0  0  0  0  0  0  0  0
   -7.2120   -7.6292   -6.5303 O   0  0  0  0  0  0  0  0  0  0  0  0
   -5.3478   -6.1053   -6.5706 C   0  0  0  0  0  0  0  0  0  0  0  0
   -6.2358   -5.2697   -5.8743 O   0  0  0  0  0  0  0  0  0  0  0  0
   -7.9452   -7.0687   -6.8947 H   0  0  0  0  0  0  0  0  0  0  0  0
   -6.7120   -4.7327   -6.5605 H   0  0  0  0  0  0  0  0  0  0  0  0
   -4.3963   -8.7930   -8.4506 C   0  0  0  0  0  0  0  0  0  0  0  0
   -5.4032   -9.0247   -9.3968 O   0  0  0  0  0  0  0  0  0  0  0  0
   -4.9411   -9.3237  -10.2232 H   0  0  0  0  0  0  0  0  0  0  0  0
    0.4123   -5.3101   -5.0302 C   0  0  0  0  0  0  0  0  0  0  0  0
    0.9525   -6.4868   -5.7451 N   0  0  0  0  0  0  0  0  0  0  0  0
    1.7149   -6.2007   -6.4017 H   0  0  0  0  0  0  0  0  0  0  0  0
    1.4282   -7.6002   -4.8959 C   0  0  0  0  0  0  0  0  0  0  0  0
    0.8134   -8.9169   -5.2422 C   0  0  0  0  0  0  0  0  0  0  0  0
    1.7157   -9.8111   -5.6115 C   0  0  0  0  0  0  0  0  0  0  0  0
    3.1002   -9.2633   -5.6218 C   0  0  0  0  0  0  0  0  0  0  0  0
    3.9399  -10.0833   -4.8533 O   0  0  0  0  0  0  0  0  0  0  0  0
    2.9527   -7.8397   -5.0306 C   0  0  0  0  0  0  0  0  0  0  0  0
    3.6007   -7.7100   -3.7858 O   0  0  0  0  0  0  0  0  0  0  0  0
    4.8697   -9.7979   -5.0579 H   0  0  0  0  0  0  0  0  0  0  0  0
    3.1709   -8.3409   -3.1488 H   0  0  0  0  0  0  0  0  0  0  0  0
  1  2  1  0  0  0
  1 12  1  0  0  0
  1 13  1  0  0  0
  2  3  2  0  0  0
  2 11  1  0  0  0
  3  4  1  0  0  0
  4  5  2  0  0  0
  4  8  1  0  0  0
  5  6  1  0  0  0
  5  9  1  0  0  0
  6 27  1  0  0  0
  6  7  2  0  0  0
  7  8  1  0  0  0
  8 15  1  0  0  0
  9 10  2  0  0  0
  9 11  1  0  0  0
 11 14  1  0  0  0
 15 16  1  0  0  0
 15 20  1  0  0  0
 16 17  1  0  0  0
 17 24  1  0  0  0
 17 18  1  0  0  0
 18 19  1  0  0  0
 18 20  1  0  0  0
 19 22  1  0  0  0
 20 21  1  0  0  0
 21 23  1  0  0  0
 24 25  1  0  0  0
 25 26  1  0  0  0
 27 28  1  0  0  0
 28 30  1  0  0  0
 28 29  1  0  0  0
 30 31  1  0  0  0
 30 35  1  0  0  0
 31 32  2  0  0  0
 32 33  1  0  0  0
 33 34  1  0  0  0
 33 35  1  0  0  0
 34 37  1  0  0  0
 35 36  1  0  0  0
 36 38  1  0  0  0
M  END
> <COMPND>
    UNNAMED

> <AUTHOR>
    GENERATED BY OPEN BABEL 3.1.0

> <MASTER>
        0    0    0    0    0    0    0    0   38    0   38    0

> <minimizedAffinity>
-10.90614

> <CNNscore>
0.3690342307

> <CNNaffinity>
6.2499480247

> <CNN_VS>
2.3064446449

> <CNNaffinity_variance>
0.2885491848

$$$$



 38 41  0  0  0  0  0  0  0  0999 V2000
   -4.0546   -4.0067    2.0532 N   0  0  0  0  0  0  0  0  0  0  0  0
   -3.4601   -3.5801    0.8276 C   0  0  0  0  0  0  0  0  0  0  0  0
   -2.3430   -4.2139    0.3646 N   0  0  0  0  0  0  0  0  0  0  0  0
   -1.7933   -3.8026   -0.8035 C   0  0  0  0  0  0  0  0  0  0  0  0
   -2.3192   -2.7707   -1.5272 C   0  0  0  0  0  0  0  0  0  0  0  0
   -1.5009   -2.6078   -2.6387 C   0  0  0  0  0  0  0  0  0  0  0  0
   -0.4911   -3.5613   -2.5011 C   0  0  0  0  0  0  0  0  0  0  0  0
   -0.6882   -4.3038   -1.3859 N   0  0  0  0  0  0  0  0  0  0  0  0
   -3.4507   -2.1076   -1.0523 C   0  0  0  0  0  0  0  0  0  0  0  0
   -3.9550   -1.1358   -1.6726 O   0  0  0  0  0  0  0  0  0  0  0  0
   -4.0047   -2.5358    0.1221 N   0  0  0  0  0  0  0  0  0  0  0  0
   -4.9030   -3.5273    2.4308 H   0  0  0  0  0  0  0  0  0  0  0  0
   -3.6488   -4.8069    2.5856 H   0  0  0  0  0  0  0  0  0  0  0  0
   -4.8562   -2.0542    0.4901 H   0  0  0  0  0  0  0  0  0  0  0  0
    0.2183   -5.3366   -0.8780 C   0  0  0  0  0  0  0  0  0  0  0  0
    1.4382   -5.3206   -1.5840 O   0  0  0  0  0  0  0  0  0  0  0  0
    1.9143   -6.6516   -1.6268 C   0  0  0  0  0  0  0  0  0  0  0  0
    0.8314   -7.6035   -1.0953 C   0  0  0  0  0  0  0  0  0  0  0  0
    1.1937   -8.0581    0.1857 O   0  0  0  0  0  0  0  0  0  0  0  0
   -0.3924   -6.7161   -1.0317 C   0  0  0  0  0  0  0  0  0  0  0  0
   -1.2263   -7.0203    0.0563 O   0  0  0  0  0  0  0  0  0  0  0  0
    0.6768   -8.8884    0.3530 H   0  0  0  0  0  0  0  0  0  0  0  0
   -1.7145   -7.8498   -0.1880 H   0  0  0  0  0  0  0  0  0  0  0  0
    2.3417   -6.9972   -3.0588 C   0  0  0  0  0  0  0  0  0  0  0  0
    3.4628   -7.8373   -3.0479 O   0  0  0  0  0  0  0  0  0  0  0  0
    3.7151   -7.9724   -3.9986 H   0  0  0  0  0  0  0  0  0  0  0  0
   -1.6031   -1.5794   -3.7388 C   0  0  0  0  0  0  0  0  0  0  0  0
   -1.0623   -2.0711   -5.0247 N   0  0  0  0  0  0  0  0  0  0  0  0
   -0.0294   -2.2209   -4.9565 H   0  0  0  0  0  0  0  0  0  0  0  0
   -1.6996   -3.2872   -5.5743 C   0  0  0  0  0  0  0  0  0  0  0  0
   -1.8087   -3.2799   -7.0642 C   0  0  0  0  0  0  0  0  0  0  0  0
   -1.1535   -4.2854   -7.6208 C   0  0  0  0  0  0  0  0  0  0  0  0
   -0.4495   -5.1378   -6.6234 C   0  0  0  0  0  0  0  0  0  0  0  0
   -0.8183   -6.4795   -6.8025 O   0  0  0  0  0  0  0  0  0  0  0  0
   -0.8986   -4.5736   -5.2531 C   0  0  0  0  0  0  0  0  0  0  0  0
   -1.6823   -5.4942   -4.5288 O   0  0  0  0  0  0  0  0  0  0  0  0
   -0.1794   -7.0174   -6.2636 H   0  0  0  0  0  0  0  0  0  0  0  0
   -2.5044   -5.6793   -5.0564 H   0  0  0  0  0  0  0  0  0  0  0  0
  1  2  1  0  0  0
  1 12  1  0  0  0
  1 13  1  0  0  0
  2  3  2  0  0  0
  2 11  1  0  0  0
  3  4  1  0  0  0
  4  5  2  0  0  0
  4  8  1  0  0  0
  5  6  1  0  0  0
  5  9  1  0  0  0
  6 27  1  0  0  0
  6  7  2  0  0  0
  7  8  1  0  0  0
  8 15  1  0  0  0
  9 10  2  0  0  0
  9 11  1  0  0  0
 11 14  1  0  0  0
 15 16  1  0  0  0
 15 20  1  0  0  0
 16 17  1  0  0  0
 17 24  1  0  0  0
 17 18  1  0  0  0
 18 19  1  0  0  0
 18 20  1  0  0  0
 19 22  1  0  0  0
 20 21  1  0  0  0
 21 23  1  0  0  0
 24 25  1  0  0  0
 25 26  1  0  0  0
 27 28  1  0  0  0
 28 30  1  0  0  0
 28 29  1  0  0  0
 30 31  1  0  0  0
 30 35  1  0  0  0
 31 32  2  0  0  0
 32 33  1  0  0  0
 33 34  1  0  0  0
 33 35  1  0  0  0
 34 37  1  0  0  0
 35 36  1  0  0  0
 36 38  1  0  0  0
M  END
> <COMPND>
    UNNAMED

> <AUTHOR>
    GENERATED BY OPEN BABEL 3.1.0

> <MASTER>
        0    0    0    0    0    0    0    0   38    0   38    0

> <minimizedAffinity>
-11.11129

> <CNNscore>
0.3511051536

> <CNNaffinity>
6.5068144798

> <CNN_VS>
2.2845761776

> <CNNaffinity_variance>
0.7912785411

$$$$



 38 41  0  0  0  0  0  0  0  0999 V2000
    1.8692  -10.2665   -5.7185 N   0  0  0  0  0  0  0  0  0  0  0  0
    1.0410   -9.1057   -5.7842 C   0  0  0  0  0  0  0  0  0  0  0  0
   -0.1705   -9.1774   -6.4093 N   0  0  0  0  0  0  0  0  0  0  0  0
   -0.9489   -8.0694   -6.4583 C   0  0  0  0  0  0  0  0  0  0  0  0
   -0.5555   -6.8836   -5.9069 C   0  0  0  0  0  0  0  0  0  0  0  0
   -1.5730   -5.9713   -6.1597 C   0  0  0  0  0  0  0  0  0  0  0  0
   -2.5327   -6.6757   -6.8882 C   0  0  0  0  0  0  0  0  0  0  0  0
   -2.1538   -7.9657   -7.0491 N   0  0  0  0  0  0  0  0  0  0  0  0
    0.6881   -6.7983   -5.2809 C   0  0  0  0  0  0  0  0  0  0  0  0
    1.1026   -5.7203   -4.7811 O   0  0  0  0  0  0  0  0  0  0  0  0
    1.4626   -7.9237   -5.2274 N   0  0  0  0  0  0  0  0  0  0  0  0
    2.8050  -10.2296   -5.2548 H   0  0  0  0  0  0  0  0  0  0  0  0
    1.5464  -11.1685   -6.1315 H   0  0  0  0  0  0  0  0  0  0  0  0
    2.3950   -7.8796   -4.7571 H   0  0  0  0  0  0  0  0  0  0  0  0
   -2.8707   -8.9732   -7.8351 C   0  0  0  0  0  0  0  0  0  0  0  0
   -2.2314   -9.1879   -9.0728 O   0  0  0  0  0  0  0  0  0  0  0  0
   -3.2376   -9.5098  -10.0130 C   0  0  0  0  0  0  0  0  0  0  0  0
   -4.6215   -9.2851   -9.3841 C   0  0  0  0  0  0  0  0  0  0  0  0
   -5.2128  -10.5283   -9.0944 O   0  0  0  0  0  0  0  0  0  0  0  0
   -4.2935   -8.5297   -8.1148 C   0  0  0  0  0  0  0  0  0  0  0  0
   -5.1434   -8.8664   -7.0489 O   0  0  0  0  0  0  0  0  0  0  0  0
   -6.1887  -10.3698   -9.0102 H   0  0  0  0  0  0  0  0  0  0  0  0
   -6.0060   -8.4058   -7.2218 H   0  0  0  0  0  0  0  0  0  0  0  0
   -3.0345   -8.6783  -11.2859 C   0  0  0  0  0  0  0  0  0  0  0  0
   -4.2139   -8.0022  -11.6246 O   0  0  0  0  0  0  0  0  0  0  0  0
   -4.0272   -7.5345  -12.4803 H   0  0  0  0  0  0  0  0  0  0  0  0
   -1.6294   -4.5045   -5.8083 C   0  0  0  0  0  0  0  0  0  0  0  0
   -1.6149   -4.2717   -4.3477 N   0  0  0  0  0  0  0  0  0  0  0  0
   -0.7418   -4.6596   -3.9218 H   0  0  0  0  0  0  0  0  0  0  0  0
   -1.7927   -2.8697   -3.9121 C   0  0  0  0  0  0  0  0  0  0  0  0
   -3.0848   -2.6267   -3.2027 C   0  0  0  0  0  0  0  0  0  0  0  0
   -2.9050   -2.1960   -1.9649 C   0  0  0  0  0  0  0  0  0  0  0  0
   -1.4671   -2.1016   -1.5900 C   0  0  0  0  0  0  0  0  0  0  0  0
   -1.1878   -0.8161   -1.1027 O   0  0  0  0  0  0  0  0  0  0  0  0
   -0.7081   -2.4203   -2.9015 C   0  0  0  0  0  0  0  0  0  0  0  0
    0.0096   -1.3081   -3.3855 O   0  0  0  0  0  0  0  0  0  0  0  0
   -0.2885   -0.8676   -0.6827 H   0  0  0  0  0  0  0  0  0  0  0  0
   -0.6433   -0.5866   -3.5893 H   0  0  0  0  0  0  0  0  0  0  0  0
  1  2  1  0  0  0
  1 12  1  0  0  0
  1 13  1  0  0  0
  2  3  2  0  0  0
  2 11  1  0  0  0
  3  4  1  0  0  0
  4  5  2  0  0  0
  4  8  1  0  0  0
  5  6  1  0  0  0
  5  9  1  0  0  0
  6 27  1  0  0  0
  6  7  2  0  0  0
  7  8  1  0  0  0
  8 15  1  0  0  0
  9 10  2  0  0  0
  9 11  1  0  0  0
 11 14  1  0  0  0
 15 16  1  0  0  0
 15 20  1  0  0  0
 16 17  1  0  0  0
 17 24  1  0  0  0
 17 18  1  0  0  0
 18 19  1  0  0  0
 18 20  1  0  0  0
 19 22  1  0  0  0
 20 21  1  0  0  0
 21 23  1  0  0  0
 24 25  1  0  0  0
 25 26  1  0  0  0
 27 28  1  0  0  0
 28 30  1  0  0  0
 28 29  1  0  0  0
 30 31  1  0  0  0
 30 35  1  0  0  0
 31 32  2  0  0  0
 32 33  1  0  0  0
 33 34  1  0  0  0
 33 35  1  0  0  0
 34 37  1  0  0  0
 35 36  1  0  0  0
 36 38  1  0  0  0
M  END
> <COMPND>
    UNNAMED

> <AUTHOR>
    GENERATED BY OPEN BABEL 3.1.0

> <MASTER>
        0    0    0    0    0    0    0    0   38    0   38    0

> <minimizedAffinity>
-8.13459

> <CNNscore>
0.3477606475

> <CNNaffinity>
5.5245118141

> <CNN_VS>
1.9212077856

> <CNNaffinity_variance>
0.1678314507

$$$$
